15

C 2.911929776311798 6.154630921538203 3.996743678425544
N 2.8947377684117983 4.707723707638204 3.988562232125544
C 2.857154246211798 3.9023681170382036 2.884497134625544
N 2.8502393962117982 2.6284907097382035 3.195512155525544
C 2.8850375006117983 2.6018590297382036 4.569948873925544
C 2.9131995216117983 3.8710360194382036 5.092340396325544
C 2.954912523511798 4.373106412938204 6.495147617925544
H 3.817593513811798 6.5379745816382036 4.478066778925544
H 2.889936074111798 6.5138868701382036 2.966188719925544
H 2.0411517729117983 6.558842879038203 4.523254292825544
H 2.836457762311798 4.315720423738203 1.886098706625544
H 2.888123849611798 1.6700903954382036 5.116606281225544
H 3.850719789811798 4.973073105138203 6.699864769925544
H 2.0852068630117984 4.9940764790382035 6.744831312425545
H 2.962404646211798 3.5259694978382035 7.184875056725544
